function mpc = case_ieee123_PQ
%CASE300    Power flow data for IEEE 123 bus test case.
%   Please see CASEFORMAT for details on the case file format.
%

%% MATPOWER Case Format : Version 2
mpc.version = '2';

%%-----  Power Flow Data  -----%%
%% system MVA base
mpc.baseMVA = 1;

%% bus data
%	bus_i	type	Pd	Qd	Gs	Bs	area	Vm	Va	baseKV	zone	Vmax	Vmin
mpc.bus = [
	1	1	0.04	0.02	0	0	1	1	0	4.16	1	1.2	0.8	;
	2	1	0.02	0.01	0	0	1	1	0	4.16	1	1.2	0.8	;
	3	1	0	0	0	0	1	1	0	4.16	1	1.2	0.8	;
	4	1	0.04	0.02	0	0	1	1	0	4.16	1	1.2	0.8	;
	5	1	0.02	0.01	0	0	1	1	0	4.16	1	1.2	0.8	;
	6	1	0	0	0.04	-0.02	1	1	0	4.16	1	1.2	0.8	;
	7	1	0.02	0.01	0	0	1	1	0	4.16	1	1.2	0.8	;
	8	1	0	0	0	0	1	1	0	4.16	1	1.2	0.8	;
	9	1	0.04	0.02	0	0	1	1	0	4.16	1	1.2	0.8	;
	10	1	0.02	0.01	0	0	1	1	0	4.16	1	1.2	0.8	;
	11	1	0	0	0.04	-0.02	1	1	0	4.16	1	1.2	0.8	;
	12	1	0.02	0.01	0	0	1	1	0	4.16	1	1.2	0.8	;
	13	1	0	0	0	0	1	1	0	4.16	1	1.2	0.8	;
	14	1	0	0	0	0	1	1	0	4.16	1	1.2	0.8	;
	15	1	0	0	0	0	1	1	0	4.16	1	1.2	0.8	;
	16	1	0.04	0.02	0	0	1	1	0	4.16	1	1.2	0.8	;
	17	1	0.02	0.01	0	0	1	1	0	4.16	1	1.2	0.8	;
	18	1	0	0	0	0	1	1	0	4.16	1	1.2	0.8	;
	19	1	0.04	0.02	0	0	1	1	0	4.16	1	1.2	0.8	;
	20	1	0.04	0.02	0	0	1	1	0	4.16	1	1.2	0.8	;
	21	1	0	0	0	0	1	1	0	4.16	1	1.2	0.8	;
	22	1	0	0	0.04	-0.02	1	1	0	4.16	1	1.2	0.8	;
	23	1	0	0	0	0	1	1	0	4.16	1	1.2	0.8	;
	24	1	0.04	0.02	0	0	1	1	0	4.16	1	1.2	0.8	;
	25	1	0	0	0	0	1	1	0	4.16	1	1.2	0.8	;
	26	1	0	0	0	0	1	1	0	4.16	1	1.2	0.8	;
	27	1	0	0	0	0	1	1	0	4.16	1	1.2	0.8	;
	28	1	0.04	0.02	0	0	1	1	0	4.16	1	1.2	0.8	;
	29	1	0	0	0.04	-0.02	1	1	0	4.16	1	1.2	0.8	;
	30	1	0.04	0.02	0	0	1	1	0	4.16	1	1.2	0.8	;
	31	1	0.02	0.01	0	0	1	1	0	4.16	1	1.2	0.8	;
	32	1	0.02	0.01	0	0	1	1	0	4.16	1	1.2	0.8	;
	33	1	0.04	0.02	0	0	1	1	0	4.16	1	1.2	0.8	;
	34	1	0	0	0.04	-0.02	1	1	0	4.16	1	1.2	0.8	;
	35	1	0	0	0.04	-0.02	1	1	0	4.16	1	1.2	0.8	;
	36	1	0	0	0	0	1	1	0	4.16	1	1.2	0.8	;
	37	1	0	0	0.04	-0.02	1	1	0	4.16	1	1.2	0.8	;
	38	1	0.02	0.01	0	0	1	1	0	4.16	1	1.2	0.8	;
	39	1	0.02	0.01	0	0	1	1	0	4.16	1	1.2	0.8	;
	40	1	0	0	0	0	1	1	0	4.16	1	1.2	0.8	;
	41	1	0.02	0.01	0	0	1	1	0	4.16	1	1.2	0.8	;
	42	1	0.02	0.01	0	0	1	1	0	4.16	1	1.2	0.8	;
	43	1	0	0	0.04	-0.02	1	1	0	4.16	1	1.2	0.8	;
	44	1	0	0	0	0	1	1	0	4.16	1	1.2	0.8	;
	45	1	0.02	0.01	0	0	1	1	0	4.16	1	1.2	0.8	;
	46	1	0.02	0.01	0	0	1	1	0	4.16	1	1.2	0.8	;
	47	1	0.035	0.025	0	0	1	1	0	4.16	1	1.2	0.8	;
	48	1	0	0	0.07	-0.05	1	1	0	4.16	1	1.2	0.8	;
	49	1	0.07	0.05	0	0	1	1	0	4.16	1	1.2	0.8	;
	50	1	0.04	0.02	0	0	1	1	0	4.16	1	1.2	0.8	;
	51	1	0.02	0.01	0	0	1	1	0	4.16	1	1.2	0.8	;
	52	1	0.04	0.02	0	0	1	1	0	4.16	1	1.2	0.8	;
	53	1	0.04	0.02	0	0	1	1	0	4.16	1	1.2	0.8	;
	54	1	0	0	0	0	1	1	0	4.16	1	1.2	0.8	;
	55	1	0	0	0.02	-0.01	1	1	0	4.16	1	1.2	0.8	;
	56	1	0.02	0.01	0	0	1	1	0	4.16	1	1.2	0.8	;
	57	1	0	0	0	0	1	1	0	4.16	1	1.2	0.8	;
	58	1	0.02	0.01	0	0	1	1	0	4.16	1	1.2	0.8	;
	59	1	0.02	0.01	0	0	1	1	0	4.16	1	1.2	0.8	;
	60	1	0.02	0.01	0	0	1	1	0	4.16	1	1.2	0.8	;
	61	1	0	0	0	0	1	1	0	4.16	1	1.2	0.8	;
	62	1	0	0	0.04	-0.02	1	1	0	4.16	1	1.2	0.8	;
	63	1	0.04	0.02	0	0	1	1	0	4.16	1	1.2	0.8	;
	64	1	0.075	0.035	0	0	1	1	0	4.16	1	1.2	0.8	;
	65	1	0	0	0.07	-0.05	1	1	0	4.16	1	1.2	0.8	;
	66	1	0.075	0.035	0	0	1	1	0	4.16	1	1.2	0.8	;
	67	1	0	0	0	0	1	1	0	4.16	1	1.2	0.8	;
	68	1	0.02	0.01	0	0	1	1	0	4.16	1	1.2	0.8	;
	69	1	0.04	0.02	0	0	1	1	0	4.16	1	1.2	0.8	;
	70	1	0.02	0.01	0	0	1	1	0	4.16	1	1.2	0.8	;
	71	1	0.04	0.02	0	0	1	1	0	4.16	1	1.2	0.8	;
	72	1	0	0	0	0	1	1	0	4.16	1	1.2	0.8	;
	73	1	0.04	0.02	0	0	1	1	0	4.16	1	1.2	0.8	;
	74	1	0	0	0.04	-0.02	1	1	0	4.16	1	1.2	0.8	;
	75	1	0.04	0.02	0	0	1	1	0	4.16	1	1.2	0.8	;
	76	1	0	0	0.105	-0.08	1	1	0	4.16	1	1.2	0.8	;
	77	1	0.04	0.02	0	0	1	1	0	4.16	1	1.2	0.8	;
	78	1	0	0	0	0	1	1	0	4.16	1	1.2	0.8	;
	79	1	0	0	0.04	-0.02	1	1	0	4.16	1	1.2	0.8	;
	80	1	0.04	0.02	0	0	1	1	0	4.16	1	1.2	0.8	;
	81	1	0	0	0	0	1	1	0	4.16	1	1.2	0.8	;
	82	1	0.04	0.02	0	0	1	1	0	4.16	1	1.2	0.8	;
	83	1	0.02	0.01	0	0	1	1	0	4.16	1	1.2	0.8	;
	84	1	0.02	0.01	0	0	1	1	0	4.16	1	1.2	0.8	;
	85	1	0.04	0.02	0	0	1	1	0	4.16	1	1.2	0.8	;
	86	1	0.02	0.01	0	0	1	1	0	4.16	1	1.2	0.8	;
	87	1	0.04	0.02	0	0	1	1	0	4.16	1	1.2	0.8	;
	88	1	0.04	0.02	0	0	1	1	0	4.16	1	1.2	0.8	;
	89	1	0	0	0	0	1	1	0	4.16	1	1.2	0.8	;
	90	1	0.04	0.02	0	0	1	1	0	4.16	1	1.2	0.8	;
	91	1	0	0	0	0	1	1	0	4.16	1	1.2	0.8	;
	92	1	0.04	0.02	0	0	1	1	0	4.16	1	1.2	0.8	;
	93	1	0	0	0	0	1	1	0	4.16	1	1.2	0.8	;
	94	1	0.04	0.02	0	0	1	1	0	4.16	1	1.2	0.8	;
	95	1	0.02	0.01	0	0	1	1	0	4.16	1	1.2	0.8	;
	96	1	0.02	0.01	0	0	1	1	0	4.16	1	1.2	0.8	;
	97	1	0	0	0	0	1	1	0	4.16	1	1.2	0.8	;
	98	1	0.04	0.02	0	0	1	1	0	4.16	1	1.2	0.8	;
	99	1	0.04	0.02	0	0	1	1	0	4.16	1	1.2	0.8	;
	100	1	0	0	0.04	-0.02	1	1	0	4.16	1	1.2	0.8	;
	101	1	0	0	0	0	1	1	0	4.16	1	1.2	0.8	;
	102	1	0.02	0.01	0	0	1	1	0	4.16	1	1.2	0.8	;
	103	1	0.04	0.02	0	0	1	1	0	4.16	1	1.2	0.8	;
	104	1	0.04	0.02	0	0	1	1	0	4.16	1	1.2	0.8	;
	105	1	0	0	0	0	1	1	0	4.16	1	1.2	0.8	;
	106	1	0.04	0.02	0	0	1	1	0	4.16	1	1.2	0.8	;
	107	1	0.04	0.02	0	0	1	1	0	4.16	1	1.2	0.8	;
	108	1	0	0	0	0	1	1	0	4.16	1	1.2	0.8	;
	109	1	0.04	0.02	0	0	1	1	0	4.16	1	1.2	0.8	;
	110	1	0	0	0	0	1	1	0	4.16	1	1.2	0.8	;
	111	1	0.02	0.01	0	0	1	1	0	4.16	1	1.2	0.8	;
	112	1	0.02	0.01	0	0	1	1	0	4.16	1	1.2	0.8	;
	113	1	0	0	0.04	-0.02	1	1	0	4.16	1	1.2	0.8	;
	114	1	0.02	0.01	0	0	1	1	0	4.16	1	1.2	0.8	;
	115	3	0	0	0	0	0	1	0	4.16	1	1.2	0.8	;
];

%% generator data
%	bus	Pg	Qg	Qmax	Qmin	Vg	mBase	status	Pmax	Pmin	Pc1	Pc2	Qc1min	Qc1max	Qc2min	Qc2max	ramp_agc	ramp_10	ramp_30	ramp_q	apf
mpc.gen = [
	115	0	0	200	-200	1	1	1	200	-200	0	0	0	0	0	0	0	0	0	0	0;
];

%% branch data
%	fbus	tbus	r	x	b	rateA	rateB	rateC	ratio	angle	status	angmin	angmax
mpc.branch = [
	1	2	0.0025457034	0.0025807518	0	100	100	100	0	0	1	-360	360	;
	1	3	0.0036367191	0.0036867883	0	100	100	100	0	0	1	-360	360	;
	1	7	0.0009902207	0.0018921227	0	100	100	100	0	0	1	-360	360	;
	3	4	0.0029093753	0.0029494306	0	100	100	100	0	0	1	-360	360	;
	3	5	0.0047277348	0.0047928248	0	100	100	100	0	0	1	-360	360	;
	5	6	0.0036367191	0.0036867883	0	100	100	100	0	0	1	-360	360	;
	7	8	0.0006601471	0.0012614151	0	100	100	100	0	0	1	-360	360	;
	8	12	0.0032730472	0.0033181095	0	100	100	100	0	0	1	-360	360	;
	8	9	0.0032730472	0.0033181095	0	100	100	100	0	0	1	-360	360	;
	8	13	0.0009902207	0.0018921227	0	100	100	100	0	0	1	-360	360	;
	9	14	0.0061824225	0.0062675401	0	100	100	100	0	0	1	-360	360	;
	13	34	0.0021820315	0.002212073	0	100	100	100	0	0	1	-360	360	;
	13	18	0.002723107	0.0052033374	0	100	100	100	0	0	1	-360	360	;
	14	11	0.0036367191	0.0036867883	0	100	100	100	0	0	1	-360	360	;
	14	10	0.0036367191	0.0036867883	0	100	100	100	0	0	1	-360	360	;
	15	16	0.0054550787	0.0055301824	0	100	100	100	0	0	1	-360	360	;
	15	17	0.0050914067	0.0051615036	0	100	100	100	0	0	1	-360	360	;
	18	19	0.0036367191	0.0036867883	0	100	100	100	0	0	1	-360	360	;
	18	21	0.0009902207	0.0018921227	0	100	100	100	0	0	1	-360	360	;
	19	20	0.0047277348	0.0047928248	0	100	100	100	0	0	1	-360	360	;
	21	22	0.0076371101	0.0077422554	0	100	100	100	0	0	1	-360	360	;
	21	23	0.0008251839	0.0015767689	0	100	100	100	0	0	1	-360	360	;
	23	24	0.008000782	0.0081109342	0	100	100	100	0	0	1	-360	360	;
	23	25	0.0009077023	0.0017344458	0	100	100	100	0	0	1	-360	360	;
	25	26	0.0011552575	0.0022074765	0	100	100	100	0	0	1	-360	360	;
	25	28	0.0006601471	0.0012614151	0	100	100	100	0	0	1	-360	360	;
	26	27	0.0009077023	0.0017344458	0	100	100	100	0	0	1	-360	360	;
	26	31	0.0032730472	0.0033181095	0	100	100	100	0	0	1	-360	360	;
	27	33	0.0072734382	0.0073735766	0	100	100	100	0	0	1	-360	360	;
	28	29	0.0009902207	0.0018921227	0	100	100	100	0	0	1	-360	360	;
	29	30	0.0011552575	0.0022074765	0	100	100	100	0	0	1	-360	360	;
	31	32	0.0043640629	0.0044241459	0	100	100	100	0	0	1	-360	360	;
	34	15	0.0014546876	0.0014747153	0	100	100	100	0	0	1	-360	360	;
	35	36	0.0021454782	0.0040995991	0	100	100	100	0	0	1	-360	360	;
	35	40	0.0008251839	0.0015767689	0	100	100	100	0	0	1	-360	360	;
	36	37	0.0043640629	0.0044241459	0	100	100	100	0	0	1	-360	360	;
	36	38	0.0036367191	0.0036867883	0	100	100	100	0	0	1	-360	360	;
	38	39	0.0047277348	0.0047928248	0	100	100	100	0	0	1	-360	360	;
	40	41	0.0047277348	0.0047928248	0	100	100	100	0	0	1	-360	360	;
	40	42	0.0008251839	0.0015767689	0	100	100	100	0	0	1	-360	360	;
	42	43	0.0072734382	0.0073735766	0	100	100	100	0	0	1	-360	360	;
	42	44	0.0006601471	0.0012614151	0	100	100	100	0	0	1	-360	360	;
	44	45	0.0029093753	0.0029494306	0	100	100	100	0	0	1	-360	360	;
	44	47	0.0008251839	0.0015767689	0	100	100	100	0	0	1	-360	360	;
	45	46	0.0043640629	0.0044241459	0	100	100	100	0	0	1	-360	360	;
	47	48	0.0004951104	0.0009460613	0	100	100	100	0	0	1	-360	360	;
	47	49	0.0008251839	0.0015767689	0	100	100	100	0	0	1	-360	360	;
	49	50	0.0008251839	0.0015767689	0	100	100	100	0	0	1	-360	360	;
	50	51	0.0008251839	0.0015767689	0	100	100	100	0	0	1	-360	360	;
	52	53	0.0006601471	0.0012614151	0	100	100	100	0	0	1	-360	360	;
	53	54	0.000412592	0.0007883844	0	100	100	100	0	0	1	-360	360	;
	54	55	0.0009077023	0.0017344458	0	100	100	100	0	0	1	-360	360	;
	54	57	0.0011552575	0.0022074765	0	100	100	100	0	0	1	-360	360	;
	55	56	0.0009077023	0.0017344458	0	100	100	100	0	0	1	-360	360	;
	57	58	0.0036367191	0.0036867883	0	100	100	100	0	0	1	-360	360	;
	57	60	0.0024755518	0.0047303067	0	100	100	100	0	0	1	-360	360	;
	58	59	0.0036367191	0.0036867883	0	100	100	100	0	0	1	-360	360	;
	60	61	0.0018154046	0.0034688916	0	100	100	100	0	0	1	-360	360	;
	60	62	0.0027390306	0.0012985156	0	100	100	100	0	0	1	-360	360	;
	62	63	0.0019173214	0.0009089609	0	100	100	100	0	0	1	-360	360	;
	63	64	0.0038346429	0.0018179218	0	100	100	100	0	0	1	-360	360	;
	64	65	0.004656352	0.0022074765	0	100	100	100	0	0	1	-360	360	;
	65	66	0.0035607398	0.0016880702	0	100	100	100	0	0	1	-360	360	;
	67	68	0.0029093753	0.0029494306	0	100	100	100	0	0	1	-360	360	;
	67	72	0.0009077023	0.0017344458	0	100	100	100	0	0	1	-360	360	;
	67	97	0.0008251839	0.0015767689	0	100	100	100	0	0	1	-360	360	;
	68	69	0.004000391	0.0040554671	0	100	100	100	0	0	1	-360	360	;
	69	70	0.0047277348	0.0047928248	0	100	100	100	0	0	1	-360	360	;
	70	71	0.004000391	0.0040554671	0	100	100	100	0	0	1	-360	360	;
	72	73	0.004000391	0.0040554671	0	100	100	100	0	0	1	-360	360	;
	72	76	0.0006601471	0.0012614151	0	100	100	100	0	0	1	-360	360	;
	73	74	0.0050914067	0.0051615036	0	100	100	100	0	0	1	-360	360	;
	74	75	0.0058187506	0.0058988613	0	100	100	100	0	0	1	-360	360	;
	76	77	0.0013202943	0.0025228302	0	100	100	100	0	0	1	-360	360	;
	76	86	0.002310515	0.0044149529	0	100	100	100	0	0	1	-360	360	;
	77	78	0.0003300736	0.0006307076	0	100	100	100	0	0	1	-360	360	;
	78	79	0.0007426655	0.001419092	0	100	100	100	0	0	1	-360	360	;
	78	80	0.0015678495	0.0029958609	0	100	100	100	0	0	1	-360	360	;
	80	81	0.0015678495	0.0029958609	0	100	100	100	0	0	1	-360	360	;
	81	82	0.0008251839	0.0015767689	0	100	100	100	0	0	1	-360	360	;
	81	84	0.0098191416	0.0099543284	0	100	100	100	0	0	1	-360	360	;
	82	83	0.0008251839	0.0015767689	0	100	100	100	0	0	1	-360	360	;
	84	85	0.0069097663	0.0070048977	0	100	100	100	0	0	1	-360	360	;
	86	87	0.0014853311	0.002838184	0	100	100	100	0	0	1	-360	360	;
	87	88	0.0025457034	0.0025807518	0	100	100	100	0	0	1	-360	360	;
	87	89	0.0009077023	0.0017344458	0	100	100	100	0	0	1	-360	360	;
	89	90	0.0032730472	0.0033181095	0	100	100	100	0	0	1	-360	360	;
	89	91	0.0007426655	0.001419092	0	100	100	100	0	0	1	-360	360	;
	91	92	0.0043640629	0.0044241459	0	100	100	100	0	0	1	-360	360	;
	91	93	0.0007426655	0.001419092	0	100	100	100	0	0	1	-360	360	;
	93	94	0.004000391	0.0040554671	0	100	100	100	0	0	1	-360	360	;
	93	95	0.0009902207	0.0018921227	0	100	100	100	0	0	1	-360	360	;
	95	96	0.0029093753	0.0029494306	0	100	100	100	0	0	1	-360	360	;
	97	98	0.0009077023	0.0017344458	0	100	100	100	0	0	1	-360	360	;
	98	99	0.0018154046	0.0034688916	0	100	100	100	0	0	1	-360	360	;
	99	100	0.0009902207	0.0018921227	0	100	100	100	0	0	1	-360	360	;
	101	102	0.0032730472	0.0033181095	0	100	100	100	0	0	1	-360	360	;
	101	105	0.0009077023	0.0017344458	0	100	100	100	0	0	1	-360	360	;
	102	103	0.0047277348	0.0047928248	0	100	100	100	0	0	1	-360	360	;
	103	104	0.0101828135	0.0103230072	0	100	100	100	0	0	1	-360	360	;
	105	106	0.0032730472	0.0033181095	0	100	100	100	0	0	1	-360	360	;
	105	108	0.0010727391	0.0020497996	0	100	100	100	0	0	1	-360	360	;
	106	107	0.0083644539	0.0084796131	0	100	100	100	0	0	1	-360	360	;
	108	109	0.0065460944	0.0066362189	0	100	100	100	0	0	1	-360	360	;
	109	110	0.0043640629	0.0044241459	0	100	100	100	0	0	1	-360	360	;
	110	111	0.0083644539	0.0084796131	0	100	100	100	0	0	1	-360	360	;
	110	112	0.0018183596	0.0018433941	0	100	100	100	0	0	1	-360	360	;
	112	113	0.0076371101	0.0077422554	0	100	100	100	0	0	1	-360	360	;
	113	114	0.0047277348	0.0047928248	0	100	100	100	0	0	1	-360	360	;
	18	35	0.0012377759	0.0023651533	0	100	100	100	0	0	1	-360	360	;
	115	1	0.0013202943	0.0025228302	0	100	100	100	0	0	1	-360	360	;
	13	52	0.0013202943	0.0025228302	0	100	100	100	0	0	1	-360	360	;
	60	67	0.0011552575	0.0022074765	0	100	100	100	0	0	1	-360	360	;
	97	101	0.0008251839	0.0015767689	0	100	100	100	0	0	1	-360	360	;
];

%%-----  OPF Data  -----%%
%% generator cost data
%	1	startup	shutdown	n	x1	y1	...	xn	yn
%	2	startup	shutdown	n	c(n-1)	...	c0
mpc.gencost = [
	2	0	0	3	0.01	40	0;
];


